# Mol2 file generated by Materials Studio
@<TRIPOS>MOLECULE
structure
126 144 0 0 0 
SMALL
USER_CHARGES


@<TRIPOS>ATOM
1 C -10.4726 2.70784 9.10416 C.3 0 **** -0.159
2 C -9.16023 2.12708 8.61412 C.2 0 **** 0
3 C -8.04046 2.95396 8.56757 C.2 0 **** 0
4 C -9.09288 0.7843 8.21677 C.2 0 **** 0
5 C -6.88567 2.36476 8.15079 C.2 0 **** 0
6 C -7.88843 0.210377 7.81835 C.2 0 **** 0
7 C -10.3503 -0.0639486 8.23855 C.3 0 **** -0.159
8 C -6.81231 1.0452 7.79567 C.2 0 **** 0
9 C -5.42117 2.64008 7.91349 C.3 0 **** -0.053
10 C -5.334 1.07934 7.49672 C.3 0 **** -0.053
11 C -4.51967 2.69935 9.17774 C.3 0 **** -0.053
12 C -4.3981 0.493077 8.58871 C.3 0 **** -0.053
13 C -3.05221 2.56523 8.68493 C.3 0 **** -0.053
14 C -4.77592 1.32534 9.83179 C.3 0 **** -0.106
15 C -2.96744 1.00462 8.26805 C.3 0 **** -0.053
16 H -5.19273 3.35364 7.11116 H 0 **** 0.053
17 H -5.05369 0.888431 6.45285 H 0 **** 0.053
18 H -4.69692 3.58467 9.80576 H 0 **** 0.053
19 H -4.46495 -0.600338 8.68757 H 0 **** 0.053
20 H -2.72284 3.27523 7.9148 H 0 **** 0.053
21 H -5.8147 1.17738 10.1703 H 0 **** 0.053
22 H -4.14887 1.12438 10.716 H 0 **** 0.053
23 H -2.59069 0.80994 7.25573 H 0 **** 0.053
24 C -1.95717 0.881995 9.38364 C.2 0 **** 0
25 C -1.16672 -0.0420846 10.017 C.2 0 **** 0
26 C -2.02812 2.21838 9.73881 C.2 0 **** 0
27 C -0.455482 0.520168 11.0459 C.2 0 **** 0
28 C -1.30797 2.78252 10.7605 C.2 0 **** 0
29 C -0.522572 1.85745 11.3974 C.2 0 **** 0
30 C 0.55079 0.17027 12.1153 C.3 0 **** -0.053
31 C 0.472421 1.73259 12.5249 C.3 0 **** -0.053
32 C 2.02496 0.0209081 11.6509 C.3 0 **** -0.053
33 C 1.91291 2.23109 12.2275 C.3 0 **** -0.053
34 C 2.89571 0.0770388 12.9355 C.3 0 **** -0.053
35 C 2.30991 1.38919 10.997 C.3 0 **** -0.106
36 C 2.81757 1.64061 13.3421 C.3 0 **** -0.053
37 H 0.203928 -0.533629 12.8832 H 0 **** 0.053
38 H 0.0808131 1.93408 13.5305 H 0 **** 0.053
39 H 2.20458 -0.870034 11.0314 H 0 **** 0.053
40 H 1.99095 3.32366 12.125 H 0 **** 0.053
41 H 2.63769 -0.629879 13.7351 H 0 **** 0.053
42 H 1.70238 1.59243 10.1003 H 0 **** 0.053
43 H 3.35718 1.52488 10.68 H 0 **** 0.053
44 H 2.51609 1.84172 14.3785 H 0 **** 0.053
45 C -8.05194 4.40929 8.95334 C.3 0 **** -0.159
46 C -7.72682 -1.23346 7.42548 C.3 0 **** -0.159
47 C -1.09748 -1.48803 9.64196 C.3 0 **** -0.159
48 C -1.37891 4.22585 11.144 C.3 0 **** -0.159
49 C 4.30417 1.6627 13.0762 C.2 0 **** 0
50 C 5.38035 2.51095 13.0826 C.2 0 **** 0
51 C 4.36962 0.32391 12.7286 C.2 0 **** 0
52 C 6.53342 1.86884 12.7089 C.2 0 **** 0
53 C 5.52008 -0.316035 12.3467 C.2 0 **** 0
54 C 6.59853 0.530426 12.3605 C.2 0 **** 0
55 C 8.01145 2.11095 12.5191 C.3 0 **** -0.053
56 C 8.08639 0.547711 12.1117 C.3 0 **** -0.053
57 C 8.86294 2.15909 13.818 C.3 0 **** -0.053
58 C 8.96378 -0.0526126 13.2435 C.3 0 **** -0.053
59 C 10.3456 1.99349 13.3839 C.3 0 **** -0.053
60 C 8.55258 0.793411 14.4671 C.3 0 **** -0.106
61 C 10.4159 0.429257 12.9785 C.3 0 **** -0.053
62 H 8.28441 2.81753 11.7239 H 0 **** 0.053
63 H 8.40258 0.344372 11.0803 H 0 **** 0.053
64 H 8.68084 3.05149 14.4347 H 0 **** 0.053
65 H 8.87224 -1.14439 13.3447 H 0 **** 0.053
66 H 10.7181 2.69156 12.6221 H 0 **** 0.053
67 H 7.49968 0.66755 14.7679 H 0 **** 0.053
68 H 9.14152 0.583841 15.3748 H 0 **** 0.053
69 H 10.8312 0.221537 11.9836 H 0 **** 0.053
70 C 11.3785 0.294201 14.1326 C.2 0 **** 0
71 C 12.1322 -0.642664 14.7915 C.2 0 **** 0
72 C 11.3233 1.63399 14.4771 C.2 0 **** 0
73 C 12.8293 -0.0894733 15.8344 C.2 0 **** 0
74 C 12.0191 2.18673 15.5209 C.2 0 **** 0
75 C 12.7757 1.25043 16.1783 C.2 0 **** 0
76 C 13.8071 -0.44725 16.9277 C.3 0 **** -0.053
77 C 13.7446 1.11235 17.3276 C.3 0 **** -0.053
78 C 15.2859 -0.609522 16.484 C.3 0 **** -0.053
79 C 15.1954 1.58299 17.041 C.3 0 **** -0.053
80 C 16.1754 -0.526828 17.7462 C.3 0 **** -0.106
81 C 15.6173 0.740573 15.8244 C.3 0 **** -0.106
82 C 16.1196 0.981027 18.1236 C.3 0 **** -0.106
83 H 13.4406 -1.14551 17.6914 H 0 **** 0.053
84 H 13.3415 1.32885 18.3257 H 0 **** 0.053
85 H 15.4652 -1.5118 15.8806 H 0 **** 0.053
86 H 15.2895 2.6748 16.9437 H 0 **** 0.053
87 H 15.8233 -1.18621 18.555 H 0 **** 0.053
88 H 15.0593 0.951291 14.8981 H 0 **** 0.053
89 H 16.6876 0.847737 15.5785 H 0 **** 0.053
90 H 15.7495 1.1576 19.1452 H 0 **** 0.053
91 C 5.30785 3.95764 13.4536 C.3 0 **** -0.159
92 C 5.59365 -1.76167 11.9729 C.3 0 **** -0.159
93 C 12.1706 -2.08953 14.4169 C.3 0 **** -0.159
94 C 11.9655 3.63379 15.8943 C.3 0 **** -0.159
95 H -11.096 1.96014 9.61673 H 0 **** 0.053
96 H -11.0626 3.12703 8.27094 H 0 **** 0.053
97 H -10.3052 3.51229 9.83692 H 0 **** 0.053
98 H -10.5788 -0.414188 9.25967 H 0 **** 0.053
99 H -10.267 -0.952354 7.59658 H 0 **** 0.053
100 H -11.2236 0.494341 7.86689 H 0 **** 0.053
101 H -8.93441 4.93219 8.55137 H 0 **** 0.053
102 H -7.16453 4.93123 8.56502 H 0 **** 0.053
103 H -8.05285 4.53377 10.0494 H 0 **** 0.053
104 H -8.24023 -1.90732 8.12934 H 0 **** 0.053
105 H -6.66744 -1.52813 7.42107 H 0 **** 0.053
106 H -8.12904 -1.42675 6.41702 H 0 **** 0.053
107 H -0.108076 -1.9151 9.86735 H 0 **** 0.053
108 H -1.2786 -1.63492 8.56586 H 0 **** 0.053
109 H -1.85006 -2.08046 10.1914 H 0 **** 0.053
110 H -2.25573 4.42765 11.7815 H 0 **** 0.053
111 H -1.45568 4.87362 10.2574 H 0 **** 0.053
112 H -0.484297 4.53935 11.7012 H 0 **** 0.053
113 H 17.2092 -0.833154 17.5188 H 0 **** 0.053
114 H 17.1239 1.43148 18.0716 H 0 **** 0.053
115 H 4.36446 4.1958 13.9647 H 0 **** 0.053
116 H 5.37192 4.60228 12.5613 H 0 **** 0.053
117 H 6.12819 4.2409 14.1309 H 0 **** 0.053
118 H 6.40534 -1.94928 11.2544 H 0 **** 0.053
119 H 4.65929 -2.10583 11.5042 H 0 **** 0.053
120 H 5.77912 -2.39517 12.8564 H 0 **** 0.053
121 H 13.0975 -2.57279 14.7569 H 0 **** 0.053
122 H 12.1127 -2.22204 13.3258 H 0 **** 0.053
123 H 11.3239 -2.63861 14.8631 H 0 **** 0.053
124 H 12.0261 3.76992 16.9849 H 0 **** 0.053
125 H 11.0284 4.10208 15.5597 H 0 **** 0.053
126 H 12.7992 4.19607 15.4409 H 0 **** 0.053
@<TRIPOS>BOND
1 2 1 1
2 2 3 1
3 2 4 2
4 3 5 2
5 6 4 1
6 4 7 1
7 5 8 1
8 5 9 1
9 8 6 2
10 8 10 1
11 9 10 1
12 9 11 1
13 10 12 1
14 13 11 1
15 11 14 1
16 12 15 1
17 12 14 1
18 15 13 1
19 9 16 1
20 10 17 1
21 11 18 1
22 12 19 1
23 13 20 1
24 14 21 1
25 14 22 1
26 15 23 1
27 24 25 1
28 24 26 2
29 25 27 2
30 28 26 1
31 27 29 1
32 27 30 1
33 29 28 2
34 29 31 1
35 30 31 1
36 30 32 1
37 31 33 1
38 34 32 1
39 32 35 1
40 33 36 1
41 33 35 1
42 36 34 1
43 30 37 1
44 31 38 1
45 32 39 1
46 33 40 1
47 34 41 1
48 35 42 1
49 35 43 1
50 36 44 1
51 13 26 1
52 15 24 1
53 3 45 1
54 6 46 1
55 25 47 1
56 28 48 1
57 49 50 1
58 49 51 2
59 50 52 2
60 53 51 1
61 52 54 1
62 52 55 1
63 54 53 2
64 54 56 1
65 55 56 1
66 55 57 1
67 56 58 1
68 59 57 1
69 57 60 1
70 58 61 1
71 58 60 1
72 61 59 1
73 55 62 1
74 56 63 1
75 57 64 1
76 58 65 1
77 59 66 1
78 60 67 1
79 60 68 1
80 61 69 1
81 70 71 1
82 70 72 2
83 71 73 2
84 74 72 1
85 73 75 1
86 73 76 1
87 75 74 2
88 75 77 1
89 76 77 1
90 76 78 1
91 77 79 1
92 80 78 1
93 78 81 1
94 79 82 1
95 79 81 1
96 82 80 1
97 76 83 1
98 77 84 1
99 78 85 1
100 79 86 1
101 80 87 1
102 81 88 1
103 81 89 1
104 82 90 1
105 59 72 1
106 61 70 1
107 50 91 1
108 53 92 1
109 71 93 1
110 74 94 1
111 36 49 1
112 34 51 1
113 1 95 1
114 1 96 1
115 1 97 1
116 7 98 1
117 7 99 1
118 7 100 1
119 45 101 1
120 45 102 1
121 45 103 1
122 46 104 1
123 46 105 1
124 46 106 1
125 47 107 1
126 47 108 1
127 47 109 1
128 48 110 1
129 48 111 1
130 48 112 1
131 80 113 1
132 82 114 1
133 91 115 1
134 91 116 1
135 91 117 1
136 92 118 1
137 92 119 1
138 92 120 1
139 93 121 1
140 93 122 1
141 93 123 1
142 94 124 1
143 94 125 1
144 94 126 1
