# Mol2 file generated by Materials Studio
@<TRIPOS>MOLECULE
structure
132 150 0 0 0 
SMALL
USER_CHARGES


@<TRIPOS>ATOM
1 C -1.1556 2.80283 14.389 C.3 0 **** -0.159
2 C -1.11885 1.92592 13.1498 C.2 0 **** 0
3 C -0.873125 2.49216 11.9016 C.2 0 **** 0
4 C -1.35169 0.548045 13.2946 C.2 0 **** 0
5 C -0.927578 1.636 10.8435 C.2 0 **** 0
6 C -1.36387 -0.30148 12.193 C.2 0 **** 0
7 C -1.62258 -0.000249684 14.6847 C.3 0 **** -0.159
8 C -1.16275 0.295804 10.9846 C.2 0 **** 0
9 C -0.823621 1.58811 9.33758 C.3 0 **** -0.053
10 C -1.09498 0.000697954 9.50687 C.3 0 **** -0.053
11 C 0.594333 1.61529 8.70566 C.3 0 **** -0.053
12 C 0.220547 -0.625736 8.96833 C.3 0 **** -0.053
13 C 0.433041 1.12721 7.23862 C.3 0 **** -0.053
14 C 1.28097 0.412216 9.38098 C.3 0 **** -0.106
15 C 0.18082 -0.460279 7.42534 C.3 0 **** -0.053
16 H -1.60991 2.13572 8.80325 H 0 **** 0.053
17 H -2.02677 -0.361478 9.05293 H 0 **** 0.053
18 H 1.10285 2.58642 8.79429 H 0 **** 0.053
19 H 0.385762 -1.6621 9.29745 H 0 **** 0.053
20 H -0.316517 1.64937 6.62974 H 0 **** 0.053
21 H 1.40714 0.520102 10.4702 H 0 **** 0.053
22 H 2.28563 0.196246 8.98454 H 0 **** 0.053
23 H -0.706729 -0.855734 6.91242 H 0 **** 0.053
24 C 1.69549 0.721193 6.51244 C.2 0 **** 0
25 C 2.77769 1.25396 5.85879 C.2 0 **** 0
26 C 1.48489 -0.636642 6.6809 C.2 0 **** 0
27 C 3.60298 0.278331 5.35943 C.2 0 **** 0
28 C 2.33808 -1.61078 6.22632 C.2 0 **** 0
29 C 3.39773 -1.079 5.537 C.2 0 **** 0
30 C 4.8564 0.101111 4.53489 C.3 0 **** -0.053
31 C 4.62038 -1.4874 4.74786 C.3 0 **** -0.053
32 C 6.23234 0.329651 5.22047 C.3 0 **** -0.053
33 C 5.89941 -1.91178 5.5258 C.3 0 **** -0.053
34 C 7.27768 -0.297135 4.25585 C.3 0 **** -0.053
35 C 6.20225 -0.672879 6.38961 C.3 0 **** -0.106
36 C 7.04737 -1.88572 4.47695 C.3 0 **** -0.053
37 H 4.77899 0.440467 3.49268 H 0 **** 0.053
38 H 4.41217 -2.04735 3.82632 H 0 **** 0.053
39 H 6.4336 1.38134 5.47105 H 0 **** 0.053
40 H 5.80089 -2.87284 6.05158 H 0 **** 0.053
41 H 7.22261 0.0330752 3.20981 H 0 **** 0.053
42 H 5.42834 -0.454813 7.14332 H 0 **** 0.053
43 H 7.15437 -0.740147 6.94044 H 0 **** 0.053
44 H 6.86563 -2.4542 3.55427 H 0 **** 0.053
45 C 8.6758 -0.547857 4.77129 C.2 0 **** 0
46 C 9.85933 0.101627 5.01723 C.2 0 **** 0
47 C 8.47981 -1.90464 4.96203 C.2 0 **** 0
48 C 10.8381 -0.763617 5.43638 C.2 0 **** 0
49 C 9.44654 -2.76259 5.4213 C.2 0 **** 0
50 C 10.6422 -2.12038 5.62771 C.2 0 **** 0
51 C 12.3009 -0.801433 5.81499 C.3 0 **** -0.053
52 C 12.072 -2.38805 6.03831 C.3 0 **** -0.053
53 C 12.6926 -0.314471 7.23914 C.3 0 **** -0.053
54 C 12.3713 -2.55636 7.55385 C.3 0 **** -0.053
55 C 14.1404 -0.824786 7.49406 C.3 0 **** -0.053
56 C 11.8495 -1.23241 8.14646 C.3 0 **** -0.106
57 C 13.9125 -2.41286 7.70831 C.3 0 **** -0.053
58 H 13.001 -0.546009 5.00796 H 0 **** 0.053
59 H 12.6417 -3.03564 5.35805 H 0 **** 0.053
60 H 12.5737 0.769576 7.38301 H 0 **** 0.053
61 H 11.9687 -3.48507 7.98544 H 0 **** 0.053
62 H 14.8953 -0.557849 6.74323 H 0 **** 0.053
63 H 10.7614 -1.0928 8.03649 H 0 **** 0.053
64 H 12.0588 -1.11158 9.2223 H 0 **** 0.053
65 H 14.5279 -3.06288 7.07122 H 0 **** 0.053
66 C 14.6317 -0.824503 8.92349 C.2 0 **** 0
67 C 15.1284 0.0153281 9.88677 C.2 0 **** 0
68 C 14.4331 -2.18251 9.1057 C.2 0 **** 0
69 C 15.4065 -0.654735 11.0514 C.2 0 **** 0
70 C 14.6855 -2.84656 10.2787 C.2 0 **** 0
71 C 15.1953 -2.00976 11.2361 C.2 0 **** 0
72 C 15.9351 -0.431419 12.4489 C.3 0 **** -0.053
73 C 15.688 -2.00761 12.6626 C.3 0 **** -0.053
74 C 14.9409 0.191822 13.4663 C.3 0 **** -0.053
75 C 14.5921 -2.01716 13.7612 C.3 0 **** -0.053
76 C 15.4828 -0.0522666 14.8972 C.3 0 **** -0.053
77 C 13.746 -0.77477 13.4398 C.3 0 **** -0.106
78 C 15.2479 -1.5917 15.0993 C.3 0 **** -0.053
79 H 16.9816 -0.107509 12.5213 H 0 **** 0.053
80 H 16.5897 -2.60091 12.8624 H 0 **** 0.053
81 H 14.7244 1.25169 13.2615 H 0 **** 0.053
82 H 14.0569 -2.97679 13.8259 H 0 **** 0.053
83 H 16.5654 0.159645 14.9288 H 0 **** 0.053
84 H 13.2035 -0.818022 12.4818 H 0 **** 0.053
85 H 12.9912 -0.554148 14.2128 H 0 **** 0.053
86 H 16.2225 -2.09896 15.2104 H 0 **** 0.053
87 C 14.4155 -1.9999 16.3222 C.3 0 **** -0.159
88 C 14.8338 0.876011 15.9335 C.3 0 **** -0.159
89 H -0.324421 2.56351 15.0738 H 0 **** 0.053
90 H -2.10129 2.66672 14.9407 H 0 **** 0.053
91 H -1.08724 3.87483 14.1595 H 0 **** 0.053
92 H -1.66912 -1.09675 14.7172 H 0 **** 0.053
93 H -2.58954 0.369045 15.0683 H 0 **** 0.053
94 H -0.83539 0.301533 15.395 H 0 **** 0.053
95 H 14.9166 -1.71382 17.2608 H 0 **** 0.053
96 H 14.2764 -3.09414 16.3388 H 0 **** 0.053
97 H 13.4159 -1.53547 16.3174 H 0 **** 0.053
98 H 15.0296 1.93052 15.6762 H 0 **** 0.053
99 H 15.24 0.697414 16.9417 H 0 **** 0.053
100 H 13.7412 0.741727 15.9799 H 0 **** 0.053
101 C -0.60819 3.95354 11.6598 C.3 0 **** -0.159
102 C -1.61013 -1.78442 12.2531 C.3 0 **** -0.159
103 C 3.01306 2.72016 5.6837 C.3 0 **** -0.159
104 C 2.11683 -3.0761 6.42558 C.3 0 **** -0.159
105 C 10.0716 1.56584 4.79932 C.3 0 **** -0.159
106 C 9.24222 -4.23049 5.61966 C.3 0 **** -0.159
107 C 15.3515 1.48167 9.69505 C.3 0 **** -0.159
108 C 14.4462 -4.30818 10.4825 C.3 0 **** -0.159
109 H -1.54317 4.53831 11.6775 H 0 **** 0.053
110 H -0.140164 4.11391 10.6767 H 0 **** 0.053
111 H 0.0757217 4.38355 12.4074 H 0 **** 0.053
112 H -1.30571 -2.27498 11.3164 H 0 **** 0.053
113 H -2.68005 -2.00805 12.4041 H 0 **** 0.053
114 H -1.04483 -2.27104 13.0625 H 0 **** 0.053
115 H 3.601 2.92846 4.77754 H 0 **** 0.053
116 H 3.56454 3.14183 6.54139 H 0 **** 0.053
117 H 2.06558 3.27199 5.59282 H 0 **** 0.053
118 H 2.54579 -3.41915 7.38213 H 0 **** 0.053
119 H 2.58364 -3.66665 5.62365 H 0 **** 0.053
120 H 1.04497 -3.32404 6.43317 H 0 **** 0.053
121 H 10.3865 1.775 3.76347 H 0 **** 0.053
122 H 10.8456 1.96452 5.47128 H 0 **** 0.053
123 H 9.152 2.13833 4.98962 H 0 **** 0.053
124 H 9.75661 -4.58818 6.52468 H 0 **** 0.053
125 H 9.62842 -4.80832 4.76383 H 0 **** 0.053
126 H 8.17708 -4.47716 5.73341 H 0 **** 0.053
127 H 15.2833 1.76632 8.63421 H 0 **** 0.053
128 H 16.3494 1.7856 10.0535 H 0 **** 0.053
129 H 14.6018 2.07598 10.246 H 0 **** 0.053
130 H 14.9765 -4.68502 11.3682 H 0 **** 0.053
131 H 14.7907 -4.89604 9.61761 H 0 **** 0.053
132 H 13.3736 -4.52061 10.6229 H 0 **** 0.053
@<TRIPOS>BOND
1 2 1 1
2 2 3 1
3 2 4 2
4 3 5 2
5 6 4 1
6 4 7 1
7 5 8 1
8 5 9 1
9 8 6 2
10 8 10 1
11 9 10 1
12 9 11 1
13 10 12 1
14 13 11 1
15 11 14 1
16 12 15 1
17 12 14 1
18 15 13 1
19 9 16 1
20 10 17 1
21 11 18 1
22 12 19 1
23 13 20 1
24 14 21 1
25 14 22 1
26 15 23 1
27 24 25 1
28 24 26 2
29 25 27 2
30 28 26 1
31 27 29 1
32 27 30 1
33 29 28 2
34 29 31 1
35 30 31 1
36 30 32 1
37 31 33 1
38 34 32 1
39 32 35 1
40 33 36 1
41 33 35 1
42 36 34 1
43 30 37 1
44 31 38 1
45 32 39 1
46 33 40 1
47 34 41 1
48 35 42 1
49 35 43 1
50 36 44 1
51 13 24 1
52 15 26 1
53 45 46 1
54 45 47 2
55 46 48 2
56 49 47 1
57 48 50 1
58 48 51 1
59 50 49 2
60 50 52 1
61 51 52 1
62 51 53 1
63 52 54 1
64 55 53 1
65 53 56 1
66 54 57 1
67 54 56 1
68 57 55 1
69 51 58 1
70 52 59 1
71 53 60 1
72 54 61 1
73 55 62 1
74 56 63 1
75 56 64 1
76 57 65 1
77 34 45 1
78 36 47 1
79 66 67 1
80 66 68 2
81 67 69 2
82 70 68 1
83 69 71 1
84 69 72 1
85 71 70 2
86 71 73 1
87 72 73 1
88 72 74 1
89 73 75 1
90 76 74 1
91 74 77 1
92 75 78 1
93 75 77 1
94 78 76 1
95 72 79 1
96 73 80 1
97 74 81 1
98 75 82 1
99 76 83 1
100 77 84 1
101 77 85 1
102 78 86 1
103 55 66 1
104 57 68 1
105 78 87 1
106 76 88 1
107 1 89 1
108 1 90 1
109 1 91 1
110 7 92 1
111 7 93 1
112 7 94 1
113 87 95 1
114 87 96 1
115 87 97 1
116 88 98 1
117 88 99 1
118 88 100 1
119 3 101 1
120 6 102 1
121 25 103 1
122 28 104 1
123 46 105 1
124 49 106 1
125 67 107 1
126 70 108 1
127 101 109 1
128 101 110 1
129 101 111 1
130 102 112 1
131 102 113 1
132 102 114 1
133 103 115 1
134 103 116 1
135 103 117 1
136 104 118 1
137 104 119 1
138 104 120 1
139 105 121 1
140 105 122 1
141 105 123 1
142 106 124 1
143 106 125 1
144 106 126 1
145 107 127 1
146 107 128 1
147 107 129 1
148 108 130 1
149 108 131 1
150 108 132 1
